
     RDKit          2D

 14 15  0  0  0  0  0  0  0  0999 V2000
   -0.1208   -1.0000    0.0000 C   0  0  0  0  0  0  0  0  0  0  0  0
   -0.1083   -0.2917    0.0000 C   0  0  0  0  0  0  0  0  0  0  0  0
   -0.7375   -1.3375    0.0000 N   0  0  0  0  0  0  0  0  0  0  0  0
   -1.3333   -0.2667    0.0000 N   0  0  0  0  0  0  0  0  0  0  0  0
   -1.3458   -0.9667    0.0000 C   0  0  0  0  0  0  0  0  0  0  0  0
   -0.7125    0.0750    0.0000 C   0  0  0  0  0  0  0  0  0  0  0  0
    0.5500   -1.2292    0.0000 N   0  0  0  0  0  0  0  0  0  0  0  0
    0.5792   -0.0917    0.0000 N   0  0  0  0  0  0  0  0  0  0  0  0
    0.9792   -0.6625    0.0000 C   0  0  0  0  0  0  0  0  0  0  0  0
   -1.9833   -1.3125    0.0000 O   0  0  0  0  0  0  0  0  0  0  0  0
   -0.7000    0.7875    0.0000 O   0  0  0  0  0  0  0  0  0  0  0  0
   -0.7500   -2.0542    0.0000 C   0  0  0  0  0  0  0  0  0  0  0  0
   -1.9375    0.1083    0.0000 C   0  0  0  0  0  0  0  0  0  0  0  0
    0.8125    0.5833    0.0000 C   0  0  0  0  0  0  0  0  0  0  0  0
  2  1  2  0
  3  1  1  0
  4  5  1  0
  5  3  1  0
  6  2  1  0
  7  1  1  0
  8  2  1  0
  9  7  2  0
 10  5  2  0
 11  6  2  0
 12  3  1  0
 13  4  1  0
 14  8  1  0
  8  9  1  0
  6  4  1  0
M  END
> <chembl_id>
CHEMBL113

> <chembl_pref_name>
CAFFEINE
$$$$

     RDKit          2D

 13 13  0  0  0  0  0  0  0  0999 V2000
   19.8052   -4.2758    0.0000 C   0  0  0  0  0  0  0  0  0  0  0  0
   19.8040   -5.0953    0.0000 C   0  0  0  0  0  0  0  0  0  0  0  0
   20.5121   -5.5043    0.0000 C   0  0  0  0  0  0  0  0  0  0  0  0
   21.2217   -5.0948    0.0000 C   0  0  0  0  0  0  0  0  0  0  0  0
   21.2189   -4.2722    0.0000 C   0  0  0  0  0  0  0  0  0  0  0  0
   20.5103   -3.8669    0.0000 C   0  0  0  0  0  0  0  0  0  0  0  0
   20.5078   -3.0497    0.0000 C   0  0  0  0  0  0  0  0  0  0  0  0
   21.2143   -2.6390    0.0000 O   0  0  0  0  0  0  0  0  0  0  0  0
   19.7989   -2.6432    0.0000 O   0  0  0  0  0  0  0  0  0  0  0  0
   21.9250   -3.8609    0.0000 O   0  0  0  0  0  0  0  0  0  0  0  0
   22.6343   -4.2668    0.0000 C   0  0  0  0  0  0  0  0  0  0  0  0
   23.3405   -3.8556    0.0000 C   0  0  0  0  0  0  0  0  0  0  0  0
   22.6374   -5.0840    0.0000 O   0  0  0  0  0  0  0  0  0  0  0  0
  1  2  2  0
  2  3  1  0
  3  4  2  0
  4  5  1  0
  5  6  2  0
  6  1  1  0
  6  7  1  0
  7  8  1  0
  7  9  2  0
  5 10  1  0
 10 11  1  0
 11 12  1  0
 11 13  2  0
M  END
> <chembl_id>
CHEMBL25

> <chembl_pref_name>
ASPIRIN
$$$$

     RDKit          2D

 24 28  0  0  0  0  0  0  0  0999 V2000
   -8.6045  -17.2190    0.0000 C   0  0  0  0  0  0  0  0  0  0  0  0
  -10.1417  -17.2190    0.0000 C   0  0  0  0  0  0  0  0  0  0  0  0
   -7.8404  -15.8819    0.0000 C   0  0  0  0  0  0  0  0  0  0  0  0
  -10.9058  -18.5561    0.0000 C   0  0  0  0  0  0  0  0  0  0  0  0
   -7.8496  -18.5561    0.0000 C   0  0  0  0  0  0  0  0  0  0  0  0
   -9.4504  -19.3202    0.0000 O   0  0  0  0  0  0  0  0  0  0  0  0
   -8.6045  -14.5630    0.0000 C   0  0  0  0  0  0  0  0  0  0  0  0
  -10.9058  -15.8819    0.0000 C   0  0  0  0  0  0  0  0  0  0  0  0
   -6.2942  -15.9000    0.0000 C   0  0  0  0  0  0  0  0  0  0  0  0
  -10.1417  -14.5448    0.0000 C   0  0  0  0  0  0  0  0  0  0  0  0
   -7.8223  -13.2259    0.0000 N   0  0  0  0  0  0  0  0  0  0  0  0
   -9.3958  -15.8728    0.0000 C   0  0  0  0  0  0  0  0  0  0  0  0
   -5.5482  -17.2371    0.0000 C   0  0  0  0  0  0  0  0  0  0  0  0
   -6.3123  -18.5561    0.0000 C   0  0  0  0  0  0  0  0  0  0  0  0
  -12.4520  -18.5561    0.0000 C   0  0  0  0  0  0  0  0  0  0  0  0
   -9.3777  -13.2259    0.0000 C   0  0  0  0  0  0  0  0  0  0  0  0
  -12.4520  -15.8819    0.0000 C   0  0  0  0  0  0  0  0  0  0  0  0
  -13.2161  -17.2190    0.0000 C   0  0  0  0  0  0  0  0  0  0  0  0
  -13.2252  -19.8932    0.0000 O   0  0  0  0  0  0  0  0  0  0  0  0
   -5.5482  -19.9113    0.0000 O   0  0  0  0  0  0  0  0  0  0  0  0
   -6.4852  -12.4437    0.0000 C   0  0  0  0  0  0  0  0  0  0  0  0
   -9.0969  -13.6926    0.0000 H   0  0  0  0  0  0  0  0  0  0  0  0
   -7.6288  -19.5314    0.0000 H   0  0  0  0  0  0  0  0  0  0  0  0
   -7.3360  -15.0184    0.0000 H   0  0  0  0  0  0  0  0  0  0  0  0
  2  1  1  0
  3  1  1  0
  4  2  1  0
  5  1  1  0
  5  6  1  0
  7  3  1  0
  8  2  2  0
  9  3  1  0
 10  7  1  0
  7 11  1  0
  1 12  1  1
 13 14  1  0
 14  5  1  0
 15  4  2  0
 16 12  1  0
 17  8  1  0
 18 15  1  0
 19 15  1  0
 14 20  1  6
 21 11  1  0
  6  4  1  0
 16 11  1  0
  9 13  2  0
 10  8  1  0
 17 18  2  0
  7 22  1  6
  5 23  1  1
  3 24  1  1
M  END
> <chembl_id>
CHEMBL70

> <chembl_pref_name>
MORPHINE
$$$$

     RDKit          2D

 11 11  0  0  0  0  0  0  0  0999 V2000
    1.5548   -3.6021    0.0000 C   0  0  0  0  0  0  0  0  0  0  0  0
    2.5951   -3.0039    0.0000 C   0  0  0  0  0  0  0  0  0  0  0  0
    3.6331   -3.6060    0.0000 O   0  0  0  0  0  0  0  0  0  0  0  0
    2.5973   -1.5031    0.0000 N   0  0  0  0  0  0  0  0  0  0  0  0
    1.2990   -0.7500    0.0000 C   0  0  0  0  0  0  0  0  0  0  0  0
    1.2990    0.7500    0.0000 C   0  0  0  0  0  0  0  0  0  0  0  0
    0.0000    1.5000    0.0000 C   0  0  0  0  0  0  0  0  0  0  0  0
   -1.2990    0.7500    0.0000 C   0  0  0  0  0  0  0  0  0  0  0  0
   -2.3383    1.3500    0.0000 O   0  0  0  0  0  0  0  0  0  0  0  0
   -1.2990   -0.7500    0.0000 C   0  0  0  0  0  0  0  0  0  0  0  0
    0.0000   -1.5000    0.0000 C   0  0  0  0  0  0  0  0  0  0  0  0
  1  2  1  0
  2  3  2  0
  2  4  1  0
  4  5  1  0
  5  6  2  0
  6  7  1  0
  7  8  2  0
  8  9  1  0
  8 10  1  0
 10 11  2  0
 11  5  1  0
M  END
> <chembl_id>
CHEMBL112

> <chembl_pref_name>
ACETAMINOPHEN
$$$$

     RDKit          2D

 15 15  0  0  0  0  0  0  0  0999 V2000
    4.0542   -2.1667    0.0000 C   0  0  0  0  0  0  0  0  0  0  0  0
    3.4417   -1.8292    0.0000 C   0  0  0  0  0  0  0  0  0  0  0  0
    2.8292   -2.2125    0.0000 C   0  0  0  0  0  0  0  0  0  0  0  0
    4.0792   -2.8792    0.0000 O   0  0  0  0  0  0  0  0  0  0  0  0
    2.2125   -1.8625    0.0000 C   0  0  0  0  0  0  0  0  0  0  0  0
    2.8417   -2.9042    0.0000 C   0  0  0  0  0  0  0  0  0  0  0  0
    4.6542   -1.7875    0.0000 O   0  0  0  0  0  0  0  0  0  0  0  0
    1.6167   -2.9417    0.0000 C   0  0  0  0  0  0  0  0  0  0  0  0
    2.2417   -3.2667    0.0000 C   0  0  0  0  0  0  0  0  0  0  0  0
    1.6042   -2.2292    0.0000 C   0  0  0  0  0  0  0  0  0  0  0  0
    1.0042   -3.3042    0.0000 C   0  0  0  0  0  0  0  0  0  0  0  0
    3.4167   -1.1167    0.0000 C   0  0  0  0  0  0  0  0  0  0  0  0
    0.3875   -2.9667    0.0000 C   0  0  0  0  0  0  0  0  0  0  0  0
   -0.2250   -3.3292    0.0000 C   0  0  0  0  0  0  0  0  0  0  0  0
    0.3750   -2.2542    0.0000 C   0  0  0  0  0  0  0  0  0  0  0  0
  2  1  1  0
  3  2  1  0
  4  1  2  0
  5  3  2  0
  6  3  1  0
  7  1  1  0
  8  9  1  0
  9  6  2  0
 10  5  1  0
 11  8  1  0
 12  2  1  0
 13 11  1  0
 14 13  1  0
 15 13  1  0
  8 10  2  0
M  END
> <chembl_id>
CHEMBL521

> <chembl_pref_name>
IBUPROFEN
$$$$

     RDKit          2D

 24 26  0  0  1  0  0  0  0  0999 V2000
    1.9042    0.3208    0.0000 N   0  0  0  0  0  0  0  0  0  0  0  0
    1.9500   -0.6667    0.0000 C   0  0  0  0  0  0  0  0  0  0  0  0
    0.9000    0.3333    0.0000 C   0  0  0  0  0  0  0  0  0  0  0  0
    0.9292   -0.6875    0.0000 C   0  0  0  0  0  0  0  0  0  0  0  0
    2.8042    0.6958    0.0000 C   0  0  0  0  0  0  0  0  0  0  0  0
    2.9250   -0.9167    0.0000 S   0  0  0  0  0  0  0  0  0  0  0  0
    3.4500   -0.0667    0.0000 C   0  0  0  0  0  0  0  0  0  0  0  0
    0.2125   -1.3750    0.0000 N   0  0  0  0  0  0  0  0  0  0  0  0
    3.0750    1.6500    0.0000 C   0  0  0  0  0  0  0  0  0  0  0  0
   -0.7625   -1.1667    0.0000 C   0  0  0  0  0  0  0  0  0  0  0  0
    0.1292    0.9708    0.0000 O   0  0  0  0  0  0  0  0  0  0  0  0
    2.3542    2.3458    0.0000 O   0  0  0  0  0  0  0  0  0  0  0  0
   -1.0833   -0.2125    0.0000 O   0  0  0  0  0  0  0  0  0  0  0  0
   -1.4208   -1.9167    0.0000 C   0  0  0  0  0  0  0  0  0  0  0  0
    4.0292    1.9250    0.0000 O   0  0  0  0  0  0  0  0  0  0  0  0
    4.3417    0.3833    0.0000 C   0  0  0  0  0  0  0  0  0  0  0  0
    4.3417   -0.5167    0.0000 C   0  0  0  0  0  0  0  0  0  0  0  0
   -2.3958   -1.7167    0.0000 C   0  0  0  0  0  0  0  0  0  0  0  0
   -3.0750   -2.4542    0.0000 C   0  0  0  0  0  0  0  0  0  0  0  0
   -2.7208   -0.7667    0.0000 C   0  0  0  0  0  0  0  0  0  0  0  0
   -4.0583   -2.2750    0.0000 C   0  0  0  0  0  0  0  0  0  0  0  0
   -3.6958   -0.5667    0.0000 C   0  0  0  0  0  0  0  0  0  0  0  0
   -4.3458   -1.3292    0.0000 C   0  0  0  0  0  0  0  0  0  0  0  0
    1.9500   -1.6625    0.0000 H   0  0  0  0  0  0  0  0  0  0  0  0
  2  1  1  0
  3  1  1  0
  4  3  1  0
  5  1  1  0
  6  2  1  0
  7  5  1  0
  4  8  1  6
  5  9  1  1
 10  8  1  0
 11  3  2  0
 12  9  2  0
 13 10  2  0
 14 10  1  0
 15  9  1  0
 16  7  1  0
 17  7  1  0
 18 14  1  0
 19 18  2  0
 20 18  1  0
 21 19  1  0
 22 20  2  0
 23 22  1  0
  2 24  1  1
  6  7  1  0
  2  4  1  0
 21 23  2  0
M  END
> <chembl_id>
CHEMBL29

> <chembl_pref_name>
BENZYLPENICILLIN
$$$$

     RDKit          2D

  9  8  0  0  0  0  0  0  0  0999 V2000
   -1.2000   -0.5792    0.0000 C   0  0  0  0  0  0  0  0  0  0  0  0
    0.0625   -1.2792    0.0000 N   0  0  0  0  0  0  0  0  0  0  0  0
    1.3000   -0.5417    0.0000 C   0  0  0  0  0  0  0  0  0  0  0  0
   -2.4458   -1.3167    0.0000 N   0  0  0  0  0  0  0  0  0  0  0  0
   -1.2000    0.8458    0.0000 N   0  0  0  0  0  0  0  0  0  0  0  0
    2.5250   -1.2250    0.0000 N   0  0  0  0  0  0  0  0  0  0  0  0
    1.3000    0.8708    0.0000 N   0  0  0  0  0  0  0  0  0  0  0  0
    0.0250    1.5833    0.0000 C   0  0  0  0  0  0  0  0  0  0  0  0
   -2.4833    1.5250    0.0000 C   0  0  0  0  0  0  0  0  0  0  0  0
  2  1  1  0
  3  2  1  0
  4  1  2  0
  5  1  1  0
  6  3  2  0
  7  3  1  0
  8  5  1  0
  9  5  1  0
M  END
> <chembl_id>
CHEMBL1431

> <chembl_pref_name>
METFORMIN
$$$$

     RDKit          2D

 41 44  0  0  1  0  0  0  0  0999 V2000
   -4.9582   -8.9917    0.0000 C   0  0  0  0  0  0  0  0  0  0  0  0
   -5.3635   -7.7469    0.0000 N   0  0  0  0  0  0  0  0  0  0  0  0
   -4.7122   -8.2390    0.0000 C   0  0  0  0  0  0  0  0  0  0  0  0
   -5.7639   -8.9917    0.0000 C   0  0  0  0  0  0  0  0  0  0  0  0
   -6.0293   -8.2390    0.0000 C   0  0  0  0  0  0  0  0  0  0  0  0
   -4.2586   -9.4500    0.0000 C   0  0  0  0  0  0  0  0  0  0  0  0
   -5.3586   -6.9364    0.0000 C   0  0  0  0  0  0  0  0  0  0  0  0
   -3.5543   -9.0206    0.0000 N   0  0  0  0  0  0  0  0  0  0  0  0
   -6.7819   -7.8482    0.0000 C   0  0  0  0  0  0  0  0  0  0  0  0
   -6.7771   -4.4035    0.0000 C   0  0  0  0  0  0  0  0  0  0  0  0
   -6.0727   -3.9982    0.0000 C   0  0  0  0  0  0  0  0  0  0  0  0
   -6.4780   -9.3824    0.0000 C   0  0  0  0  0  0  0  0  0  0  0  0
   -4.2635  -10.2460    0.0000 O   0  0  0  0  0  0  0  0  0  0  0  0
   -3.9885   -7.8338    0.0000 C   0  0  0  0  0  0  0  0  0  0  0  0
   -7.5056   -3.9838    0.0000 O   0  0  0  0  0  0  0  0  0  0  0  0
   -4.6494   -6.5456    0.0000 C   0  0  0  0  0  0  0  0  0  0  0  0
   -6.7771   -5.2285    0.0000 O   0  0  0  0  0  0  0  0  0  0  0  0
   -5.3586   -4.4324    0.0000 C   0  0  0  0  0  0  0  0  0  0  0  0
   -5.3586   -5.2719    0.0000 C   0  0  0  0  0  0  0  0  0  0  0  0
   -7.4767   -8.2631    0.0000 C   0  0  0  0  0  0  0  0  0  0  0  0
   -6.7819   -7.0232    0.0000 C   0  0  0  0  0  0  0  0  0  0  0  0
   -2.8402   -9.4355    0.0000 C   0  0  0  0  0  0  0  0  0  0  0  0
   -8.1955   -7.0232    0.0000 C   0  0  0  0  0  0  0  0  0  0  0  0
   -4.6494   -5.6772    0.0000 C   0  0  0  0  0  0  0  0  0  0  0  0
   -7.4767   -6.6035    0.0000 C   0  0  0  0  0  0  0  0  0  0  0  0
   -8.1955   -7.8482    0.0000 C   0  0  0  0  0  0  0  0  0  0  0  0
   -8.9385   -6.6035    0.0000 F   0  0  0  0  0  0  0  0  0  0  0  0
   -4.6784   -3.9982    0.0000 O   0  0  0  0  0  0  0  0  0  0  0  0
   -3.9451   -5.3588    0.0000 O   0  0  0  0  0  0  0  0  0  0  0  0
   -6.4780  -10.2074    0.0000 C   0  0  0  0  0  0  0  0  0  0  0  0
   -7.1872   -8.9772    0.0000 C   0  0  0  0  0  0  0  0  0  0  0  0
   -3.2744   -8.2390    0.0000 C   0  0  0  0  0  0  0  0  0  0  0  0
   -3.9885   -6.9943    0.0000 C   0  0  0  0  0  0  0  0  0  0  0  0
   -2.1214   -9.0206    0.0000 C   0  0  0  0  0  0  0  0  0  0  0  0
   -2.8402  -10.2653    0.0000 C   0  0  0  0  0  0  0  0  0  0  0  0
   -7.1872  -10.6272    0.0000 C   0  0  0  0  0  0  0  0  0  0  0  0
   -7.9350   -9.3824    0.0000 C   0  0  0  0  0  0  0  0  0  0  0  0
   -2.1214  -10.6851    0.0000 C   0  0  0  0  0  0  0  0  0  0  0  0
   -1.4073   -9.4259    0.0000 C   0  0  0  0  0  0  0  0  0  0  0  0
   -7.9350  -10.2074    0.0000 C   0  0  0  0  0  0  0  0  0  0  0  0
   -1.4073  -10.2653    0.0000 C   0  0  0  0  0  0  0  0  0  0  0  0
  2  3  1  0
  3  1  2  0
  4  1  1  0
  5  4  2  0
  6  1  1  0
  7  2  1  0
  8  6  1  0
  9  5  1  0
 10 11  1  0
 11 18  1  0
 12  4  1  0
 13  6  2  0
 14  3  1  0
 15 10  1  0
 16  7  1  0
 17 10  2  0
 18 19  1  0
 19 24  1  0
 20  9  1  0
 21  9  2  0
 22  8  1  0
 23 26  1  0
 24 16  1  6
 25 21  1  0
 26 20  2  0
 27 23  1  0
 18 28  1  6
 29 24  1  0
 30 12  2  0
 31 12  1  0
 32 14  1  0
 33 14  1  0
 34 22  1  0
 35 22  2  0
 36 30  1  0
 37 31  2  0
 38 35  1  0
 39 34  2  0
 40 36  2  0
 41 39  1  0
  5  2  1  0
 37 40  1  0
 25 23  2  0
 38 41  2  0
M  END
> <chembl_id>
CHEMBL1487

> <chembl_pref_name>
ATORVASTATIN
$$$$

     RDKit          2D

 13 13  0  0  0  0  0  0  0  0999 V2000
    5.0750   -6.5917    0.0000 C   0  0  0  0  0  0  0  0  0  0  0  0
    4.4542   -6.2417    0.0000 C   0  0  0  0  0  0  0  0  0  0  0  0
    5.6875   -6.2417    0.0000 C   0  0  0  0  0  0  0  0  0  0  0  0
    5.0750   -7.3125    0.0000 O   0  0  0  0  0  0  0  0  0  0  0  0
    3.8417   -6.5917    0.0000 C   0  0  0  0  0  0  0  0  0  0  0  0
    6.3042   -6.5917    0.0000 C   0  0  0  0  0  0  0  0  0  0  0  0
    4.4542   -5.5375    0.0000 C   0  0  0  0  0  0  0  0  0  0  0  0
    5.6875   -5.5375    0.0000 C   0  0  0  0  0  0  0  0  0  0  0  0
    5.0750   -5.1792    0.0000 C   0  0  0  0  0  0  0  0  0  0  0  0
    3.2250   -6.2417    0.0000 C   0  0  0  0  0  0  0  0  0  0  0  0
    3.8417   -7.3125    0.0000 C   0  0  0  0  0  0  0  0  0  0  0  0
    6.9167   -6.2417    0.0000 C   0  0  0  0  0  0  0  0  0  0  0  0
    6.3042   -7.3125    0.0000 C   0  0  0  0  0  0  0  0  0  0  0  0
  2  1  2  0
  3  1  1  0
  4  1  1  0
  5  2  1  0
  6  3  1  0
  7  2  1  0
  8  3  2  0
  9  8  1  0
 10  5  1  0
 11  5  1  0
 12  6  1  0
 13  6  1  0
  9  7  2  0
M  END
> <chembl_id>
CHEMBL526

> <chembl_pref_name>
PROPOFOL
$$$$

     RDKit          2D

 10  9  0  0  0  0  0  0  0  0999 V2000
   15.7815   -9.3626    0.0000 C   0  0  0  0  0  0  0  0  0  0  0  0
   15.0670   -9.7751    0.0000 C   0  0  0  0  0  0  0  0  0  0  0  0
   15.0670  -10.6001    0.0000 C   0  0  0  0  0  0  0  0  0  0  0  0
   14.3525  -11.0126    0.0000 C   0  0  0  0  0  0  0  0  0  0  0  0
   14.3525  -11.8376    0.0000 C   0  0  0  0  0  0  0  0  0  0  0  0
   13.6381  -10.6001    0.0000 C   0  0  0  0  0  0  0  0  0  0  0  0
   13.6381   -9.7751    0.0000 C   0  0  0  0  0  0  0  0  0  0  0  0
   12.9236   -9.3626    0.0000 C   0  0  0  0  0  0  0  0  0  0  0  0
   13.6381  -12.2501    0.0000 O   0  0  0  0  0  0  0  0  0  0  0  0
   15.0670  -12.2501    0.0000 O   0  0  0  0  0  0  0  0  0  0  0  0
  1  2  1  0
  2  3  1  0
  3  4  1  0
  4  5  1  0
  4  6  1  0
  6  7  1  0
  7  8  1  0
  5  9  2  0
  5 10  1  0
M  END
> <chembl_id>
CHEMBL109

> <chembl_pref_name>
VALPROIC ACID
$$$$

     RDKit          2D

 26 28  0  0  1  0  0  0  0  0999 V2000
    3.0667   -2.7500    0.0000 N   0  0  0  0  0  0  0  0  0  0  0  0
    3.0667   -2.0417    0.0000 C   0  0  0  0  0  0  0  0  0  0  0  0
    2.3542   -2.7542    0.0000 C   0  0  0  0  0  0  0  0  0  0  0  0
    2.3542   -2.0417    0.0000 C   0  0  0  0  0  0  0  0  0  0  0  0
    3.7417   -2.9667    0.0000 C   0  0  0  0  0  0  0  0  0  0  0  0
    3.7375   -1.8167    0.0000 S   0  0  0  0  0  0  0  0  0  0  0  0
    4.1542   -2.3917    0.0000 C   0  0  0  0  0  0  0  0  0  0  0  0
    1.7292   -1.6792    0.0000 N   0  0  0  0  0  0  0  0  0  0  0  0
    1.1167   -2.0417    0.0000 C   0  0  0  0  0  0  0  0  0  0  0  0
    3.7292   -3.6667    0.0000 C   0  0  0  0  0  0  0  0  0  0  0  0
    0.5042   -1.6875    0.0000 C   0  0  0  0  0  0  0  0  0  0  0  0
    1.8542   -3.2542    0.0000 O   0  0  0  0  0  0  0  0  0  0  0  0
    1.1167   -2.7500    0.0000 O   0  0  0  0  0  0  0  0  0  0  0  0
   -0.1083   -2.0417    0.0000 C   0  0  0  0  0  0  0  0  0  0  0  0
    3.1167   -4.0167    0.0000 O   0  0  0  0  0  0  0  0  0  0  0  0
   -0.7208   -1.6792    0.0000 C   0  0  0  0  0  0  0  0  0  0  0  0
   -0.1083   -2.7417    0.0000 C   0  0  0  0  0  0  0  0  0  0  0  0
    0.5042   -0.9792    0.0000 N   0  0  0  0  0  0  0  0  0  0  0  0
    4.3417   -4.0292    0.0000 O   0  0  0  0  0  0  0  0  0  0  0  0
    4.7667   -2.7417    0.0000 C   0  0  0  0  0  0  0  0  0  0  0  0
    4.7667   -2.0292    0.0000 C   0  0  0  0  0  0  0  0  0  0  0  0
   -1.3333   -2.7417    0.0000 C   0  0  0  0  0  0  0  0  0  0  0  0
   -1.3333   -2.0375    0.0000 C   0  0  0  0  0  0  0  0  0  0  0  0
   -0.7125   -3.1000    0.0000 C   0  0  0  0  0  0  0  0  0  0  0  0
   -1.9458   -3.1000    0.0000 O   0  0  0  0  0  0  0  0  0  0  0  0
    3.0542   -1.3292    0.0000 H   0  0  0  0  0  0  0  0  0  0  0  0
  2  1  1  0
  3  1  1  0
  4  3  1  0
  5  1  1  0
  6  2  1  0
  7  5  1  0
  4  8  1  1
  9  8  1  0
  5 10  1  6
 11  9  1  0
 12  3  2  0
 13  9  2  0
 14 11  1  0
 15 10  2  0
 16 14  2  0
 17 14  1  0
 11 18  1  1
 19 10  1  0
 20  7  1  0
 21  7  1  0
 22 24  1  0
 23 16  1  0
 24 17  2  0
 25 22  1  0
  2 26  1  6
  7  6  1  0
  2  4  1  0
 23 22  2  0
M  END
> <chembl_id>
CHEMBL1082

> <chembl_pref_name>
AMOXICILLIN
$$$$

     RDKit          2D

 24 25  0  0  1  0  0  0  0  0999 V2000
    1.6125   -1.9792    0.0000 C   0  0  0  0  0  0  0  0  0  0  0  0
   -0.8500   -1.2917    0.0000 C   0  0  0  0  0  0  0  0  0  0  0  0
   -0.8583   -2.0042    0.0000 C   0  0  0  0  0  0  0  0  0  0  0  0
   -0.2333   -0.9292    0.0000 C   0  0  0  0  0  0  0  0  0  0  0  0
    2.2125   -2.3375    0.0000 C   0  0  0  0  0  0  0  0  0  0  0  0
    1.6125   -1.2917    0.0000 C   0  0  0  0  0  0  0  0  0  0  0  0
    0.3667   -1.9792    0.0000 C   0  0  0  0  0  0  0  0  0  0  0  0
    4.6667   -0.9417    0.0000 C   0  0  0  0  0  0  0  0  0  0  0  0
    1.0000   -2.3375    0.0000 O   0  0  0  0  0  0  0  0  0  0  0  0
   -0.2458   -2.3375    0.0000 C   0  0  0  0  0  0  0  0  0  0  0  0
    0.3792   -1.2792    0.0000 C   0  0  0  0  0  0  0  0  0  0  0  0
    2.8292   -1.2667    0.0000 C   0  0  0  0  0  0  0  0  0  0  0  0
    4.0417   -1.2792    0.0000 C   0  0  0  0  0  0  0  0  0  0  0  0
    2.8375   -1.9750    0.0000 C   0  0  0  0  0  0  0  0  0  0  0  0
    2.2167   -0.9292    0.0000 C   0  0  0  0  0  0  0  0  0  0  0  0
    3.4417   -0.9167    0.0000 C   0  0  0  0  0  0  0  0  0  0  0  0
    5.2792   -1.3167    0.0000 O   0  0  0  0  0  0  0  0  0  0  0  0
    4.6875   -0.2292    0.0000 O   0  0  0  0  0  0  0  0  0  0  0  0
   -0.2375   -0.2167    0.0000 I   0  0  0  0  0  0  0  0  0  0  0  0
   -1.4750   -2.3542    0.0000 I   0  0  0  0  0  0  0  0  0  0  0  0
    0.9917   -0.9292    0.0000 I   0  0  0  0  0  0  0  0  0  0  0  0
    2.2167   -3.0542    0.0000 I   0  0  0  0  0  0  0  0  0  0  0  0
   -1.4708   -0.9292    0.0000 O   0  0  0  0  0  0  0  0  0  0  0  0
    4.0167   -1.9917    0.0000 N   0  0  0  0  0  0  0  0  0  0  0  0
  2  4  1  0
  3 10  1  0
  4 11  2  0
  5  1  2  0
  6  1  1  0
  7  9  1  0
  8 13  1  0
  9  1  1  0
 10  7  2  0
 11  7  1  0
 12 15  1  0
 13 16  1  0
 14  5  1  0
 15  6  2  0
 16 12  1  0
 17  8  1  0
 18  8  2  0
 19  4  1  0
 20  3  1  0
 21  6  1  0
 22  5  1  0
 23  2  1  0
 13 24  1  1
 12 14  2  0
  2  3  2  0
M  END
> <chembl_id>
CHEMBL1624

> <chembl_pref_name>
LEVOTHYROXINE
$$$$

     RDKit          2D

 15 16  0  0  1  0  0  0  0  0999 V2000
   -1.7458    0.0458    0.0000 N   0  0  0  0  0  0  0  0  0  0  0  0
   -3.1583    0.0458    0.0000 C   0  0  0  0  0  0  0  0  0  0  0  0
   -1.7333   -1.3792    0.0000 C   0  0  0  0  0  0  0  0  0  0  0  0
   -0.3833    0.5000    0.0000 C   0  0  0  0  0  0  0  0  0  0  0  0
    0.4667   -0.6375    0.0000 C   0  0  0  0  0  0  0  0  0  0  0  0
   -0.3625   -1.8000    0.0000 O   0  0  0  0  0  0  0  0  0  0  0  0
   -3.1458   -1.3792    0.0000 C   0  0  0  0  0  0  0  0  0  0  0  0
    0.0417    1.8500    0.0000 C   0  0  0  0  0  0  0  0  0  0  0  0
    1.8917   -0.6417    0.0000 C   0  0  0  0  0  0  0  0  0  0  0  0
   -4.1625    1.0625    0.0000 O   0  0  0  0  0  0  0  0  0  0  0  0
   -0.9208    2.9000    0.0000 O   0  0  0  0  0  0  0  0  0  0  0  0
    1.4292    2.1708    0.0000 O   0  0  0  0  0  0  0  0  0  0  0  0
    2.8167   -1.7292    0.0000 C   0  0  0  0  0  0  0  0  0  0  0  0
    4.2375   -1.7292    0.0000 O   0  0  0  0  0  0  0  0  0  0  0  0
   -1.7333   -2.8000    0.0000 H   0  0  0  0  0  0  0  0  0  0  0  0
  2  1  1  0
  3  1  1  0
  4  1  1  0
  5  4  1  0
  6  3  1  0
  7  3  1  0
  4  8  1  1
  9  5  2  0
 10  2  2  0
 11  8  2  0
 12  8  1  0
 13  9  1  0
 14 13  1  0
  3 15  1  1
  2  7  1  0
  5  6  1  0
M  END
> <chembl_id>
CHEMBL777

> <chembl_pref_name>
CLAVULANIC ACID
$$$$

     RDKit          2D

 52 54  0  0  1  0  0  0  0  0999 V2000
    0.1542  -10.8708    0.0000 C   0  0  0  0  0  0  0  0  0  0  0  0
   -2.1083   -9.7750    0.0000 C   0  0  0  0  0  0  0  0  0  0  0  0
   -3.3333   -9.7792    0.0000 C   0  0  0  0  0  0  0  0  0  0  0  0
   -3.9458   -8.0167    0.0000 C   0  0  0  0  0  0  0  0  0  0  0  0
   -2.7208  -10.1292    0.0000 C   0  0  0  0  0  0  0  0  0  0  0  0
   -0.1958  -11.4792    0.0000 C   0  0  0  0  0  0  0  0  0  0  0  0
   -1.4958   -8.7167    0.0000 C   0  0  0  0  0  0  0  0  0  0  0  0
   -3.3333   -7.6667    0.0000 C   0  0  0  0  0  0  0  0  0  0  0  0
   -2.1083   -9.0667    0.0000 C   0  0  0  0  0  0  0  0  0  0  0  0
   -3.0375   -6.3167    0.0000 N   0  0  0  0  0  0  0  0  0  0  0  0
   -3.3333   -9.0750    0.0000 O   0  0  0  0  0  0  0  0  0  0  0  0
    0.1500   -9.9292    0.0000 O   0  0  0  0  0  0  0  0  0  0  0  0
   -3.4958  -12.8542    0.0000 C   0  0  0  0  0  0  0  0  0  0  0  0
   -0.9083  -11.4792    0.0000 C   0  0  0  0  0  0  0  0  0  0  0  0
   -1.4958   -8.0167    0.0000 C   0  0  0  0  0  0  0  0  0  0  0  0
   -2.4375  -12.2458    0.0000 C   0  0  0  0  0  0  0  0  0  0  0  0
   -3.3333   -6.9667    0.0000 C   0  0  0  0  0  0  0  0  0  0  0  0
   -2.7875  -12.8542    0.0000 C   0  0  0  0  0  0  0  0  0  0  0  0
   -0.1958  -10.2583    0.0000 O   0  0  0  0  0  0  0  0  0  0  0  0
   -2.7875  -11.6333    0.0000 O   0  0  0  0  0  0  0  0  0  0  0  0
   -3.9458   -8.7250    0.0000 C   0  0  0  0  0  0  0  0  0  0  0  0
   -3.8542  -12.2458    0.0000 C   0  0  0  0  0  0  0  0  0  0  0  0
   -1.4958  -10.1250    0.0000 O   0  0  0  0  0  0  0  0  0  0  0  0
   -3.4958  -11.6333    0.0000 C   0  0  0  0  0  0  0  0  0  0  0  0
   -1.2625  -10.8708    0.0000 C   0  0  0  0  0  0  0  0  0  0  0  0
   -2.3333   -6.3250    0.0000 C   0  0  0  0  0  0  0  0  0  0  0  0
   -1.2583  -12.0958    0.0000 N   0  0  0  0  0  0  0  0  0  0  0  0
   -2.1083   -7.6667    0.0000 C   0  0  0  0  0  0  0  0  0  0  0  0
   -3.9458  -10.1333    0.0000 O   0  0  0  0  0  0  0  0  0  0  0  0
   -0.9083  -10.2583    0.0000 C   0  0  0  0  0  0  0  0  0  0  0  0
   -2.1083   -6.9625    0.0000 C   0  0  0  0  0  0  0  0  0  0  0  0
   -4.3000   -7.4000    0.0000 O   0  0  0  0  0  0  0  0  0  0  0  0
    0.1542  -12.0958    0.0000 O   0  0  0  0  0  0  0  0  0  0  0  0
   -2.7208   -8.0250    0.0000 O   0  0  0  0  0  0  0  0  0  0  0  0
   -1.1458   -7.4000    0.0000 O   0  0  0  0  0  0  0  0  0  0  0  0
   -4.1125  -13.2042    0.0000 O   0  0  0  0  0  0  0  0  0  0  0  0
   -4.5625  -12.2458    0.0000 O   0  0  0  0  0  0  0  0  0  0  0  0
   -4.6542   -8.0167    0.0000 C   0  0  0  0  0  0  0  0  0  0  0  0
   -3.6583   -5.9667    0.0000 C   0  0  0  0  0  0  0  0  0  0  0  0
   -2.7167  -10.8375    0.0000 C   0  0  0  0  0  0  0  0  0  0  0  0
   -2.7250   -8.7125    0.0000 C   0  0  0  0  0  0  0  0  0  0  0  0
   -3.5000  -13.5667    0.0000 C   0  0  0  0  0  0  0  0  0  0  0  0
   -0.7875   -8.0167    0.0000 C   0  0  0  0  0  0  0  0  0  0  0  0
   -3.9458   -6.6125    0.0000 C   0  0  0  0  0  0  0  0  0  0  0  0
   -4.5583   -9.0792    0.0000 C   0  0  0  0  0  0  0  0  0  0  0  0
   -3.8500  -11.0167    0.0000 C   0  0  0  0  0  0  0  0  0  0  0  0
   -1.9667  -12.0958    0.0000 C   0  0  0  0  0  0  0  0  0  0  0  0
   -0.9042  -12.7083    0.0000 C   0  0  0  0  0  0  0  0  0  0  0  0
   -1.2583   -9.6417    0.0000 C   0  0  0  0  0  0  0  0  0  0  0  0
   -1.4958   -6.6042    0.0000 C   0  0  0  0  0  0  0  0  0  0  0  0
   -4.7250  -12.8458    0.0000 C   0  0  0  0  0  0  0  0  0  0  0  0
   -5.1708   -8.7250    0.0000 C   0  0  0  0  0  0  0  0  0  0  0  0
  2  9  1  0
  3  5  1  0
  4 21  1  0
  5  2  1  0
  6  1  1  0
  7 12  1  6
  8 17  1  0
  9  7  1  0
 10 26  1  0
 11  3  1  0
  1 12  1  1
 13 18  1  0
 14  6  1  0
 15  7  1  0
 16 23  1  1
 17 10  1  0
 18 16  1  0
 19  1  1  0
 20 16  1  0
 21 11  1  0
 22 24  1  0
  2 23  1  6
 24 20  1  0
 25 30  1  0
 26 31  1  0
 14 27  1  1
 28 15  1  0
 29  3  2  0
 30 19  1  0
 31 28  1  0
  4 32  1  1
  6 33  1  6
  8 34  1  1
 15 35  1  1
 13 36  1  0
 22 37  1  1
 38  4  1  0
 39 10  1  0
  5 40  1  1
  9 41  1  6
 13 42  1  6
 43 15  1  0
 17 44  1  1
 21 45  1  6
 24 46  1  6
 47 27  1  0
 48 27  1  0
 30 49  1  1
 31 50  1  6
 51 36  1  0
 52 45  1  0
 25 14  1  0
  4  8  1  0
 22 13  1  0
M  END
> <chembl_id>
CHEMBL529

> <chembl_pref_name>
AZITHROMYCIN
$$$$

     RDKit          2D

 28 31  0  0  0  0  0  0  0  0999 V2000
   -0.2125    1.2333    0.0000 C   0  0  0  0  0  0  0  0  0  0  0  0
    0.3375    1.8458    0.0000 C   0  0  0  0  0  0  0  0  0  0  0  0
    0.2000    0.5125    0.0000 C   0  0  0  0  0  0  0  0  0  0  0  0
    1.0917    1.5083    0.0000 C   0  0  0  0  0  0  0  0  0  0  0  0
   -1.0458    1.2333    0.0000 C   0  0  0  0  0  0  0  0  0  0  0  0
    1.0042    0.6875    0.0000 C   0  0  0  0  0  0  0  0  0  0  0  0
   -0.2125   -0.2042    0.0000 C   0  0  0  0  0  0  0  0  0  0  0  0
   -1.4583    0.5125    0.0000 C   0  0  0  0  0  0  0  0  0  0  0  0
    3.9625    0.6833    0.0000 N   0  0  0  0  0  0  0  0  0  0  0  0
   -1.0458   -0.2042    0.0000 C   0  0  0  0  0  0  0  0  0  0  0  0
    1.8125    1.9250    0.0000 C   0  0  0  0  0  0  0  0  0  0  0  0
    0.1667    2.6583    0.0000 O   0  0  0  0  0  0  0  0  0  0  0  0
    4.6792    0.2708    0.0000 C   0  0  0  0  0  0  0  0  0  0  0  0
    3.9625    1.5083    0.0000 C   0  0  0  0  0  0  0  0  0  0  0  0
    3.2417    0.2708    0.0000 C   0  0  0  0  0  0  0  0  0  0  0  0
    2.5292    1.5083    0.0000 C   0  0  0  0  0  0  0  0  0  0  0  0
   -2.2833    0.5125    0.0000 O   0  0  0  0  0  0  0  0  0  0  0  0
   -1.4583   -0.9167    0.0000 O   0  0  0  0  0  0  0  0  0  0  0  0
    5.3917    0.6833    0.0000 C   0  0  0  0  0  0  0  0  0  0  0  0
    3.2417    1.9250    0.0000 C   0  0  0  0  0  0  0  0  0  0  0  0
    2.5292    0.6833    0.0000 C   0  0  0  0  0  0  0  0  0  0  0  0
   -2.6958   -0.2042    0.0000 C   0  0  0  0  0  0  0  0  0  0  0  0
   -2.2833   -0.9167    0.0000 C   0  0  0  0  0  0  0  0  0  0  0  0
    5.3917    1.5083    0.0000 C   0  0  0  0  0  0  0  0  0  0  0  0
    6.1125    0.2708    0.0000 C   0  0  0  0  0  0  0  0  0  0  0  0
    6.8292    0.6833    0.0000 C   0  0  0  0  0  0  0  0  0  0  0  0
    6.1125    1.9250    0.0000 C   0  0  0  0  0  0  0  0  0  0  0  0
    6.8292    1.5083    0.0000 C   0  0  0  0  0  0  0  0  0  0  0  0
  2  1  1  0
  3  1  2  0
  4  2  1  0
  5  1  1  0
  6  3  1  0
  7  3  1  0
  8  5  2  0
  9 14  1  0
 10  8  1  0
 11  4  1  0
 12  2  2  0
 13  9  1  0
 14 20  1  0
 15 21  1  0
 16 11  1  0
 17  8  1  0
 18 10  1  0
 19 13  1  0
 20 16  1  0
 21 16  1  0
 22 17  1  0
 23 18  1  0
 24 19  1  0
 25 19  2  0
 26 25  1  0
 27 24  2  0
 28 27  1  0
  6  4  1  0
 10  7  2  0
 15  9  1  0
 28 26  2  0
M  END
> <chembl_id>
CHEMBL502

> <chembl_pref_name>
DONEPEZIL
$$$$

     RDKit          2D

 16 17  0  0  0  0  0  0  0  0999 V2000
    3.7042   -5.3292    0.0000 C   0  0  0  0  0  0  0  0  0  0  0  0
    4.4167   -5.3417    0.0000 C   0  0  0  0  0  0  0  0  0  0  0  0
    3.0917   -5.0042    0.0000 C   0  0  0  0  0  0  0  0  0  0  0  0
    4.7625   -5.9625    0.0000 C   0  0  0  0  0  0  0  0  0  0  0  0
    4.0042   -4.6917    0.0000 N   0  0  0  0  0  0  0  0  0  0  0  0
    3.0917   -4.2917    0.0000 O   0  0  0  0  0  0  0  0  0  0  0  0
    4.4042   -6.5667    0.0000 Cl  0  0  0  0  0  0  0  0  0  0  0  0
    3.7167   -6.0667    0.0000 C   0  0  0  0  0  0  0  0  0  0  0  0
    4.7667   -4.7292    0.0000 C   0  0  0  0  0  0  0  0  0  0  0  0
    2.4792   -5.3542    0.0000 C   0  0  0  0  0  0  0  0  0  0  0  0
    5.4792   -5.9542    0.0000 C   0  0  0  0  0  0  0  0  0  0  0  0
    3.6042   -4.1125    0.0000 C   0  0  0  0  0  0  0  0  0  0  0  0
    3.0917   -6.4250    0.0000 C   0  0  0  0  0  0  0  0  0  0  0  0
    5.4750   -4.7250    0.0000 C   0  0  0  0  0  0  0  0  0  0  0  0
    2.4792   -6.0667    0.0000 C   0  0  0  0  0  0  0  0  0  0  0  0
    5.8292   -5.3500    0.0000 C   0  0  0  0  0  0  0  0  0  0  0  0
  2  1  1  0
  3  1  1  0
  4  2  2  0
  5  1  1  0
  6  3  2  0
  7  4  1  0
  8  1  1  0
  9  2  1  0
 10  3  1  0
 11  4  1  0
 12  5  1  0
 13  8  1  0
 14  9  2  0
 15 13  1  0
 16 14  1  0
 15 10  1  0
 16 11  2  0
M  END
> <chembl_id>
CHEMBL742

> <chembl_pref_name>
KETAMINE
$$$$

     RDKit          2D

 33 34  0  0  0  0  0  0  0  0999 V2000
    6.5262   -7.0501    0.0000 C   0  0  0  0  0  0  0  0  0  0  0  0
    5.0981   -7.0501    0.0000 S   0  0  0  0  0  0  0  0  0  0  0  0
    7.2402   -6.6400    0.0000 N   0  0  0  0  0  0  0  0  0  0  0  0
    6.5262   -7.8847    0.0000 N   0  0  0  0  0  0  0  0  0  0  0  0
    5.8122   -6.6400    0.0000 N   0  0  0  0  0  0  0  0  0  0  0  0
    7.9542   -7.8847    0.0000 C   0  0  0  0  0  0  0  0  0  0  0  0
    7.9542   -7.0501    0.0000 C   0  0  0  0  0  0  0  0  0  0  0  0
    7.2402   -8.2948    0.0000 C   0  0  0  0  0  0  0  0  0  0  0  0
    8.6730   -8.2948    0.0000 C   0  0  0  0  0  0  0  0  0  0  0  0
   12.9572   -8.2803    0.0000 C   0  0  0  0  0  0  0  0  0  0  0  0
   12.2432   -7.8655    0.0000 C   0  0  0  0  0  0  0  0  0  0  0  0
    5.5082   -7.7642    0.0000 O   0  0  0  0  0  0  0  0  0  0  0  0
    4.6832   -7.7642    0.0000 O   0  0  0  0  0  0  0  0  0  0  0  0
    8.6634   -6.6352    0.0000 C   0  0  0  0  0  0  0  0  0  0  0  0
    9.3822   -7.8800    0.0000 C   0  0  0  0  0  0  0  0  0  0  0  0
   13.6712   -7.8606    0.0000 O   0  0  0  0  0  0  0  0  0  0  0  0
   12.9620   -9.1053    0.0000 O   0  0  0  0  0  0  0  0  0  0  0  0
   11.5292   -8.2852    0.0000 C   0  0  0  0  0  0  0  0  0  0  0  0
   10.8104   -7.8702    0.0000 C   0  0  0  0  0  0  0  0  0  0  0  0
    7.2450   -9.1198    0.0000 C   0  0  0  0  0  0  0  0  0  0  0  0
    9.3775   -7.0452    0.0000 C   0  0  0  0  0  0  0  0  0  0  0  0
    8.6586   -5.8150    0.0000 C   0  0  0  0  0  0  0  0  0  0  0  0
    4.3793   -6.6400    0.0000 C   0  0  0  0  0  0  0  0  0  0  0  0
   10.0867   -5.8103    0.0000 C   0  0  0  0  0  0  0  0  0  0  0  0
   10.0963   -8.2900    0.0000 C   0  0  0  0  0  0  0  0  0  0  0  0
    5.8122   -5.8150    0.0000 C   0  0  0  0  0  0  0  0  0  0  0  0
   10.0867   -6.6352    0.0000 C   0  0  0  0  0  0  0  0  0  0  0  0
    9.3630   -5.3953    0.0000 C   0  0  0  0  0  0  0  0  0  0  0  0
   10.8006   -5.3905    0.0000 F   0  0  0  0  0  0  0  0  0  0  0  0
   11.5292   -9.1102    0.0000 O   0  0  0  0  0  0  0  0  0  0  0  0
   10.1012   -9.1149    0.0000 O   0  0  0  0  0  0  0  0  0  0  0  0
    6.5310   -9.5347    0.0000 C   0  0  0  0  0  0  0  0  0  0  0  0
    7.9591   -9.5347    0.0000 C   0  0  0  0  0  0  0  0  0  0  0  0
  2  5  1  0
  3  1  1  0
  4  1  2  0
  5  1  1  0
  6  7  1  0
  7  3  2  0
  8  4  1  0
  9  6  1  0
 10 11  1  0
 11 18  1  0
 12  2  2  0
 13  2  2  0
 14  7  1  0
 15  9  2  0
 16 10  1  0
 17 10  2  0
 18 19  1  0
 19 25  1  0
 20  8  1  0
 21 14  2  0
 22 14  1  0
 23  2  1  0
 24 28  1  0
 25 15  1  0
 26  5  1  0
 27 21  1  0
 28 22  2  0
 29 24  1  0
 18 30  1  6
 25 31  1  6
 32 20  1  0
 33 20  1  0
  6  8  2  0
 24 27  2  0
M  END
> <chembl_id>
CHEMBL1496

> <chembl_pref_name>
ROSUVASTATIN
$$$$

     RDKit          2D

 30 33  0  0  0  0  0  0  0  0999 V2000
    3.2917   -4.0667    0.0000 N   0  0  0  0  0  0  0  0  0  0  0  0
    2.7000   -3.6875    0.0000 C   0  0  0  0  0  0  0  0  0  0  0  0
    3.6417   -3.0000    0.0000 N   0  0  0  0  0  0  0  0  0  0  0  0
    2.9375   -3.0000    0.0000 C   0  0  0  0  0  0  0  0  0  0  0  0
    3.8792   -3.6875    0.0000 C   0  0  0  0  0  0  0  0  0  0  0  0
    6.3667   -5.1542    0.0000 C   0  0  0  0  0  0  0  0  0  0  0  0
    6.7292   -4.1042    0.0000 N   0  0  0  0  0  0  0  0  0  0  0  0
    6.9375   -4.7792    0.0000 N   0  0  0  0  0  0  0  0  0  0  0  0
    6.0125   -4.1042    0.0000 N   0  0  0  0  0  0  0  0  0  0  0  0
    5.8042   -4.7792    0.0000 N   0  0  0  0  0  0  0  0  0  0  0  0
    6.3667   -5.8417    0.0000 C   0  0  0  0  0  0  0  0  0  0  0  0
    5.7625   -6.2167    0.0000 C   0  0  0  0  0  0  0  0  0  0  0  0
    3.3042   -4.7917    0.0000 C   0  0  0  0  0  0  0  0  0  0  0  0
    5.1417   -5.8792    0.0000 C   0  0  0  0  0  0  0  0  0  0  0  0
    2.5167   -2.4042    0.0000 Cl  0  0  0  0  0  0  0  0  0  0  0  0
    2.0875   -4.0167    0.0000 C   0  0  0  0  0  0  0  0  0  0  0  0
    4.5292   -6.2375    0.0000 C   0  0  0  0  0  0  0  0  0  0  0  0
    5.1417   -5.1542    0.0000 C   0  0  0  0  0  0  0  0  0  0  0  0
    3.9125   -5.1542    0.0000 C   0  0  0  0  0  0  0  0  0  0  0  0
    4.4792   -4.0667    0.0000 C   0  0  0  0  0  0  0  0  0  0  0  0
    3.9125   -5.8792    0.0000 C   0  0  0  0  0  0  0  0  0  0  0  0
    4.5292   -4.7792    0.0000 C   0  0  0  0  0  0  0  0  0  0  0  0
    6.9875   -6.2167    0.0000 C   0  0  0  0  0  0  0  0  0  0  0  0
    1.4542   -3.6875    0.0000 O   0  0  0  0  0  0  0  0  0  0  0  0
    5.7625   -6.9250    0.0000 C   0  0  0  0  0  0  0  0  0  0  0  0
    5.0917   -3.7292    0.0000 C   0  0  0  0  0  0  0  0  0  0  0  0
    5.0875   -3.0292    0.0000 C   0  0  0  0  0  0  0  0  0  0  0  0
    6.9875   -6.9250    0.0000 C   0  0  0  0  0  0  0  0  0  0  0  0
    6.3667   -7.2792    0.0000 C   0  0  0  0  0  0  0  0  0  0  0  0
    5.7375   -2.6375    0.0000 C   0  0  0  0  0  0  0  0  0  0  0  0
  2  1  1  0
  3  5  2  0
  4  2  2  0
  5  1  1  0
  6 11  1  0
  7  8  1  0
  8  6  1  0
  9 10  1  0
 10  6  2  0
 11 12  2  0
 12 14  1  0
 13  1  1  0
 14 18  2  0
 15  4  1  0
 16  2  1  0
 17 21  2  0
 18 22  1  0
 19 13  1  0
 20  5  1  0
 21 19  1  0
 22 19  2  0
 23 11  1  0
 24 16  1  0
 25 12  1  0
 26 20  1  0
 27 26  1  0
 28 29  1  0
 29 25  2  0
 30 27  1  0
  4  3  1  0
 14 17  1  0
 28 23  2  0
  7  9  2  0
M  END
> <chembl_id>
CHEMBL191

> <chembl_pref_name>
LOSARTAN
$$$$

     RDKit          2D

 20 20  0  0  1  0  0  0  0  0999 V2000
    8.1167   -5.0167    0.0000 N   0  0  0  0  0  0  0  0  0  0  0  0
   12.4083   -3.9292    0.0000 C   0  0  0  0  0  0  0  0  0  0  0  0
   11.7875   -3.5875    0.0000 N   0  0  0  0  0  0  0  0  0  0  0  0
   11.2042   -3.9500    0.0000 C   0  0  0  0  0  0  0  0  0  0  0  0
    8.7417   -4.6792    0.0000 C   0  0  0  0  0  0  0  0  0  0  0  0
   13.0208   -3.5625    0.0000 C   0  0  0  0  0  0  0  0  0  0  0  0
    7.5042   -4.6917    0.0000 O   0  0  0  0  0  0  0  0  0  0  0  0
   10.5833   -3.6042    0.0000 C   0  0  0  0  0  0  0  0  0  0  0  0
    8.1292   -5.7417    0.0000 O   0  0  0  0  0  0  0  0  0  0  0  0
    9.9667   -3.9542    0.0000 C   0  0  0  0  0  0  0  0  0  0  0  0
   12.4125   -4.6458    0.0000 O   0  0  0  0  0  0  0  0  0  0  0  0
    9.3542   -5.0042    0.0000 C   0  0  0  0  0  0  0  0  0  0  0  0
    8.7292   -3.9667    0.0000 C   0  0  0  0  0  0  0  0  0  0  0  0
    9.3542   -3.6125    0.0000 C   0  0  0  0  0  0  0  0  0  0  0  0
    9.9667   -4.6417    0.0000 C   0  0  0  0  0  0  0  0  0  0  0  0
   13.6458   -3.9125    0.0000 Cl  0  0  0  0  0  0  0  0  0  0  0  0
   13.0083   -2.8542    0.0000 Cl  0  0  0  0  0  0  0  0  0  0  0  0
   10.5792   -2.8917    0.0000 O   0  0  0  0  0  0  0  0  0  0  0  0
   11.2208   -4.6542    0.0000 C   0  0  0  0  0  0  0  0  0  0  0  0
   10.6167   -5.0292    0.0000 O   0  0  0  0  0  0  0  0  0  0  0  0
  2  3  1  0
  3  4  1  0
  4  8  1  0
  5  1  1  0
  6  2  1  0
  7  1  1  0
  8 10  1  0
  9  1  2  0
 10 14  1  0
 11  2  2  0
 12  5  2  0
 13  5  1  0
 14 13  2  0
 15 12  1  0
 16  6  1  0
 17  6  1  0
  8 18  1  1
  4 19  1  6
 20 19  1  0
 10 15  2  0
M  CHG  2   1   1   7  -1
M  END
> <chembl_id>
CHEMBL130

> <chembl_pref_name>
CHLORAMPHENICOL
$$$$

     RDKit          2D

 21 23  0  0  1  0  0  0  0  0999 V2000
    0.9125   -0.8583    0.0000 N   0  0  0  0  0  0  0  0  0  0  0  0
    2.1458   -0.8583    0.0000 C   0  0  0  0  0  0  0  0  0  0  0  0
    0.2958   -0.5125    0.0000 C   0  0  0  0  0  0  0  0  0  0  0  0
    2.1458   -1.5583    0.0000 C   0  0  0  0  0  0  0  0  0  0  0  0
   -0.3167   -0.8583    0.0000 C   0  0  0  0  0  0  0  0  0  0  0  0
    1.5417   -0.5000    0.0000 C   0  0  0  0  0  0  0  0  0  0  0  0
    0.2958    0.2083    0.0000 C   0  0  0  0  0  0  0  0  0  0  0  0
    2.8500   -1.7917    0.0000 S   0  0  0  0  0  0  0  0  0  0  0  0
    0.9125   -1.5458    0.0000 C   0  0  0  0  0  0  0  0  0  0  0  0
    1.5292   -1.9208    0.0000 C   0  0  0  0  0  0  0  0  0  0  0  0
    3.2417   -1.1875    0.0000 C   0  0  0  0  0  0  0  0  0  0  0  0
    2.8500   -0.6333    0.0000 C   0  0  0  0  0  0  0  0  0  0  0  0
   -0.3125   -1.5667    0.0000 C   0  0  0  0  0  0  0  0  0  0  0  0
   -0.3250    0.5625    0.0000 O   0  0  0  0  0  0  0  0  0  0  0  0
    0.9042    0.5667    0.0000 O   0  0  0  0  0  0  0  0  0  0  0  0
    0.3042   -1.9250    0.0000 Cl  0  0  0  0  0  0  0  0  0  0  0  0
   -0.9250   -0.5083    0.0000 C   0  0  0  0  0  0  0  0  0  0  0  0
   -0.9250   -1.9292    0.0000 C   0  0  0  0  0  0  0  0  0  0  0  0
    1.5250    0.2167    0.0000 C   0  0  0  0  0  0  0  0  0  0  0  0
   -1.5458   -0.8583    0.0000 C   0  0  0  0  0  0  0  0  0  0  0  0
   -1.5458   -1.5708    0.0000 C   0  0  0  0  0  0  0  0  0  0  0  0
  2  6  1  0
  3  1  1  0
  4 10  1  0
  5  3  1  0
  6  1  1  0
  3  7  1  1
  8  4  1  0
  9  1  1  0
 10  9  1  0
 11 12  2  0
 12  2  1  0
 13  5  1  0
 14  7  2  0
 15  7  1  0
 16 13  1  0
 17  5  2  0
 18 13  2  0
 19 15  1  0
 20 17  1  0
 21 20  2  0
  4  2  2  0
 11  8  1  0
 21 18  1  0
M  END
> <chembl_id>
CHEMBL1771

> <chembl_pref_name>
CLOPIDOGREL
$$$$
