
     RDKit          2D

 13 14  0  0  0  0  0  0  0  0999 V2000
    2.0159    0.2365    0.0000 O   0  0  0  0  0  0  0  0  0  0  0  0
    1.3014   -0.1760    0.0000 C   0  0  0  0  0  0  0  0  0  0  0  0
    1.3014   -1.0010    0.0000 C   0  0  0  0  0  0  0  0  0  0  0  0
    0.5869   -1.4135    0.0000 C   0  0  0  0  0  0  0  0  0  0  0  0
   -0.1275   -1.0010    0.0000 C   0  0  0  0  0  0  0  0  0  0  0  0
   -0.9121   -1.2559    0.0000 N   0  0  0  0  0  0  0  0  0  0  0  0
   -1.3971   -0.5885    0.0000 C   0  0  0  0  0  0  0  0  0  0  0  0
   -0.9121    0.0790    0.0000 C   0  0  0  0  0  0  0  0  0  0  0  0
   -0.1275   -0.1760    0.0000 C   0  0  0  0  0  0  0  0  0  0  0  0
    0.5869    0.2365    0.0000 C   0  0  0  0  0  0  0  0  0  0  0  0
   -1.1671    0.8636    0.0000 C   0  0  0  0  0  0  0  0  0  0  0  0
   -0.6151    1.4767    0.0000 C   0  0  0  0  0  0  0  0  0  0  0  0
   -0.8700    2.2613    0.0000 N   0  0  0  0  0  0  0  0  0  0  0  0
  2  1  1  0
 10  2  2  0
  3  2  1  0
  3  4  2  0
  5  4  1  0
  5  6  1  0
  9  5  2  0
  7  6  1  0
  7  8  2  0
 11  8  1  0
  9  8  1  0
  9 10  1  0
 12 11  1  0
 12 13  1  0
M  END
> <chembl_id>
CHEMBL39

> <chembl_pref_name>
SEROTONIN